Version 4
SHEET 1 1840 1188
WIRE 176 -16 176 -48
WIRE 176 96 176 64
WIRE 128 176 96 176
WIRE 176 224 176 192
WIRE 176 224 -304 224
WIRE -448 304 -544 304
WIRE -304 304 -304 288
WIRE -304 304 -384 304
WIRE -240 304 -304 304
WIRE -208 304 -240 304
WIRE 16 304 -128 304
WIRE 96 304 96 176
WIRE 96 304 16 304
WIRE 272 304 208 304
WIRE 96 352 96 304
WIRE 208 352 208 304
WIRE 208 352 96 352
WIRE 16 368 16 304
WIRE -240 416 -240 304
WIRE -208 416 -240 416
WIRE -80 416 -128 416
WIRE -48 416 -80 416
WIRE 176 432 176 224
WIRE 272 432 176 432
WIRE 176 464 176 432
WIRE 176 464 16 464
WIRE -304 512 -432 512
WIRE -80 512 -80 416
WIRE -80 512 -112 512
WIRE 176 576 176 464
WIRE 176 576 -112 576
WIRE -304 608 -368 608
WIRE -16 608 -112 608
WIRE 176 608 176 576
WIRE 176 608 64 608
WIRE -368 656 -368 608
WIRE 176 656 176 608
WIRE 96 672 96 352
WIRE 128 672 96 672
WIRE -368 768 -368 736
WIRE 176 784 176 752
WIRE 176 912 176 864
FLAG 176 912 0
FLAG 176 -48 24VAC
FLAG -208 -304 0
FLAG -208 -384 24VAC
FLAG -368 768 0
FLAG -784 592 0
FLAG -784 512 5Vpulse
FLAG -432 512 5Vpulse
FLAG -544 304 24VAC
FLAG -1040 608 0
FLAG -1040 528 5VDC
SYMBOL voltage -208 -400 R0
WINDOW 123 0 0 Left 0
WINDOW 39 0 0 Left 0
SYMATTR InstName V1
SYMATTR Value SINE(0 34 50 0)
SYMBOL schottky -448 320 R270
WINDOW 0 32 32 VTop 2
WINDOW 3 -13 19 VBottom 2
SYMATTR InstName D1
SYMATTR Value RB168VYM150
SYMATTR Description Diode
SYMATTR Type diode
SYMBOL res 160 -32 R0
SYMATTR InstName Load
SYMATTR Value 0.00001
SYMBOL res -112 288 R90
WINDOW 0 0 56 VBottom 2
WINDOW 3 32 56 VTop 2
SYMATTR InstName R1
SYMATTR Value 22k
SYMBOL cap -288 288 R180
WINDOW 0 24 56 Left 2
WINDOW 3 24 8 Left 2
SYMATTR InstName C1
SYMATTR Value 10µ
SYMATTR SpiceLine Rser=1
SYMBOL voltage -784 496 R0
WINDOW 3 -216 171 Left 2
WINDOW 123 0 0 Left 0
WINDOW 39 0 0 Left 0
SYMATTR Value PULSE(0 5 10m 1u 1u 30m 80m 5)
SYMATTR InstName V2
SYMBOL res -384 640 R0
SYMATTR InstName R3
SYMATTR Value 220
SYMBOL nmos 128 96 R0
SYMATTR InstName M3
SYMATTR Value BSC028N06LS3
SYMBOL res 160 768 R0
SYMATTR InstName Load1
SYMATTR Value 2.8
SYMBOL nmos 128 752 M180
SYMATTR InstName M1
SYMATTR Value BSC028N06LS3
SYMBOL voltage -1040 512 R0
WINDOW 3 31 86 Left 2
WINDOW 123 0 0 Left 0
WINDOW 39 0 0 Left 0
SYMATTR Value 33
SYMATTR InstName V3
SYMBOL npn -48 368 R0
SYMATTR InstName Q1
SYMATTR Value 2N5550
SYMBOL res 80 592 R90
WINDOW 0 83 61 VBottom 2
WINDOW 3 32 56 VTop 2
SYMATTR InstName R4
SYMATTR Value 220k
SYMBOL Optos\\MOC205 -208 576 R0
SYMATTR InstName U2
SYMBOL res -112 400 R90
WINDOW 0 0 56 VBottom 2
WINDOW 3 32 56 VTop 2
SYMATTR InstName R2
SYMATTR Value 47k
SYMBOL zener 288 432 R180
WINDOW 0 24 64 Left 2
WINDOW 3 24 0 Left 2
SYMATTR InstName D2
SYMATTR Value EDZV15B
SYMATTR Description Diode
SYMATTR Type diode
SYMBOL zener 256 304 R0
SYMATTR InstName D3
SYMATTR Value EDZV15B
SYMATTR Description Diode
SYMATTR Type diode
TEXT -1032 368 Left 2 !.tran 0 0.1 0.001 1u
TEXT -384 576 Left 2 ;10 mA
TEXT -424 544 Left 2 ;V_F 1.18V
