Version 4
SHEET 1 2300 788
WIRE 1888 -256 1888 -304
WIRE 1312 -144 1312 -256
WIRE 1312 -144 1168 -144
WIRE 1392 -144 1312 -144
WIRE 1888 -128 1888 -176
WIRE 1952 -128 1888 -128
WIRE 2080 -128 2016 -128
WIRE 1168 -96 1168 -144
WIRE 1392 -96 1392 -144
WIRE 1456 -96 1392 -96
WIRE 1632 -96 1536 -96
WIRE 1888 -96 1888 -128
WIRE 1888 -96 1824 -96
WIRE 1952 -80 1952 -112
WIRE 1888 -32 1824 -32
WIRE 864 -16 736 -16
WIRE 880 -16 864 -16
WIRE 1632 0 1392 0
WIRE 1840 0 1824 0
WIRE 1392 16 1392 0
WIRE 1168 64 1168 -16
WIRE 1216 64 1168 64
WIRE 1328 64 1296 64
WIRE 1888 80 1888 -32
WIRE 1888 80 1840 80
WIRE 736 112 736 -16
WIRE 1168 112 1168 64
WIRE 1888 112 1888 80
WIRE 544 144 544 80
WIRE 864 160 864 -16
WIRE 992 160 864 160
WIRE 1104 160 1072 160
WIRE 1168 256 1168 208
WIRE 1264 256 1168 256
WIRE 1392 256 1392 112
WIRE 1392 256 1264 256
WIRE 1264 272 1264 256
WIRE 544 320 544 224
WIRE 736 336 736 192
FLAG 544 320 0
FLAG 544 80 DC
FLAG 1888 -304 DC
FLAG 1888 112 0
FLAG 1952 -80 0
FLAG 1264 352 0
FLAG 736 336 0
FLAG 1312 -256 DC
SYMBOL voltage 544 128 R0
WINDOW 123 0 0 Left 0
WINDOW 39 0 0 Left 0
SYMATTR InstName V1
SYMATTR Value 35
SYMBOL voltage 736 96 R0
WINDOW 3 -57 114 Left 2
WINDOW 123 0 0 Left 0
WINDOW 39 0 0 Left 0
SYMATTR Value SINE(0 35 50 0 0 0)
SYMATTR InstName V2
SYMBOL Optos\\MOC205 1728 -32 R0
SYMATTR InstName U1
SYMBOL res 1872 -272 R0
SYMATTR InstName R5
SYMATTR Value 10k
SYMBOL res 1824 -16 R0
SYMATTR InstName R6
SYMATTR Value 470k
SYMBOL res 976 176 R270
WINDOW 0 32 56 VTop 2
WINDOW 3 0 56 VBottom 2
SYMATTR InstName R1
SYMATTR Value 100k
SYMBOL Digital\\schmtbuf 1952 -192 R0
SYMATTR InstName A1
SYMBOL npn 1104 112 R0
SYMATTR InstName Q1
SYMATTR Value 2N5550
SYMBOL res 1200 80 R270
WINDOW 0 32 56 VTop 2
WINDOW 3 0 56 VBottom 2
SYMATTR InstName R2
SYMATTR Value 1k
SYMBOL npn 1328 16 R0
SYMATTR InstName Q2
SYMATTR Value 2N5550
SYMBOL res 1248 256 R0
SYMATTR InstName R3
SYMATTR Value 100
SYMBOL res 1152 -112 R0
SYMATTR InstName R7
SYMATTR Value 100k
SYMBOL res 1552 -112 R90
WINDOW 0 0 56 VBottom 2
WINDOW 3 32 56 VTop 2
SYMATTR InstName R8
SYMATTR Value 10k
TEXT 448 344 Left 2 !.tran 0 25m 0 10u
