Version 4
SHEET 1 2300 788
WIRE 240 -336 240 -400
WIRE 1136 -256 944 -256
WIRE 1232 -256 1200 -256
WIRE 1312 -256 1232 -256
WIRE 1888 -256 1888 -304
WIRE 1232 -240 1232 -256
WIRE 240 -160 240 -256
WIRE 1312 -144 1312 -256
WIRE 1312 -144 1168 -144
WIRE 1392 -144 1312 -144
WIRE 1888 -128 1888 -176
WIRE 1952 -128 1888 -128
WIRE 2080 -128 2016 -128
WIRE 1168 -96 1168 -144
WIRE 1392 -96 1392 -144
WIRE 1456 -96 1392 -96
WIRE 1632 -96 1536 -96
WIRE 1888 -96 1888 -128
WIRE 1888 -96 1824 -96
WIRE 1952 -80 1952 -112
WIRE 1888 -32 1824 -32
WIRE 480 -16 336 -16
WIRE 784 -16 480 -16
WIRE 1632 0 1392 0
WIRE 1840 0 1824 0
WIRE 1392 16 1392 0
WIRE 480 48 480 -16
WIRE 784 64 784 -16
WIRE 784 64 736 64
WIRE 832 64 784 64
WIRE 1168 64 1168 -16
WIRE 1216 64 1168 64
WIRE 1328 64 1296 64
WIRE 1888 80 1888 -32
WIRE 1888 80 1840 80
WIRE 336 112 336 -16
WIRE 1168 112 1168 64
WIRE 1888 112 1888 80
WIRE 144 144 144 80
WIRE 672 160 672 64
WIRE 672 160 640 160
WIRE 896 160 896 64
WIRE 944 160 944 -256
WIRE 944 160 896 160
WIRE 992 160 944 160
WIRE 1104 160 1072 160
WIRE 480 176 480 128
WIRE 672 256 672 160
WIRE 784 256 736 256
WIRE 832 256 784 256
WIRE 896 256 896 160
WIRE 1168 256 1168 208
WIRE 1264 256 1168 256
WIRE 1392 256 1392 112
WIRE 1392 256 1264 256
WIRE 1264 272 1264 256
WIRE 144 320 144 224
WIRE 336 336 336 192
WIRE 480 336 480 240
WIRE 480 336 336 336
WIRE 784 336 784 256
WIRE 784 336 480 336
WIRE 640 400 640 160
WIRE 688 400 640 400
WIRE 688 464 688 400
FLAG 144 320 0
FLAG 144 80 DC
FLAG 1888 -304 DC
FLAG 1888 112 0
FLAG 688 464 0
FLAG 1952 -80 0
FLAG 1264 352 0
FLAG 1232 -176 0
FLAG 240 -160 0
SYMBOL voltage 144 128 R0
WINDOW 123 0 0 Left 0
WINDOW 39 0 0 Left 0
SYMATTR InstName V1
SYMATTR Value 5
SYMBOL voltage 336 96 R0
WINDOW 3 -57 114 Left 2
WINDOW 123 0 0 Left 0
WINDOW 39 0 0 Left 0
SYMATTR Value SINE(0 34 50)
SYMATTR InstName V2
SYMBOL schottky 672 272 R270
WINDOW 0 32 32 VTop 2
WINDOW 3 0 32 VBottom 2
SYMATTR InstName D1
SYMATTR Value MBRS1100
SYMATTR Description Diode
SYMATTR Type diode
SYMBOL schottky 832 272 R270
WINDOW 0 32 32 VTop 2
WINDOW 3 0 32 VBottom 2
SYMATTR InstName D2
SYMATTR Value MBRS1100
SYMATTR Description Diode
SYMATTR Type diode
SYMBOL schottky 832 80 R270
WINDOW 0 32 32 VTop 2
WINDOW 3 0 32 VBottom 2
SYMATTR InstName D3
SYMATTR Value MBRS1100
SYMATTR Description Diode
SYMATTR Type diode
SYMBOL schottky 672 80 R270
WINDOW 0 32 32 VTop 2
WINDOW 3 0 32 VBottom 2
SYMATTR InstName D4
SYMATTR Value MBRS1100
SYMATTR Description Diode
SYMATTR Type diode
SYMBOL cap 464 176 R0
SYMATTR InstName C1
SYMATTR Value 6300p
SYMBOL res 464 32 R0
SYMATTR InstName R4
SYMATTR Value 47000k
SYMBOL Optos\\MOC205 1728 -32 R0
SYMATTR InstName U1
SYMBOL res 1872 -272 R0
SYMATTR InstName R5
SYMATTR Value 100k
SYMBOL res 1824 -16 R0
SYMATTR InstName R6
SYMATTR Value 1Meg
SYMBOL res 976 176 R270
WINDOW 0 32 56 VTop 2
WINDOW 3 0 56 VBottom 2
SYMATTR InstName R1
SYMATTR Value 100k
SYMBOL Digital\\schmtbuf 1952 -192 R0
SYMATTR InstName A1
SYMBOL npn 1104 112 R0
SYMATTR InstName Q1
SYMATTR Value 2N5550
SYMBOL res 1200 80 R270
WINDOW 0 32 56 VTop 2
WINDOW 3 0 56 VBottom 2
SYMATTR InstName R2
SYMATTR Value 10k
SYMBOL npn 1328 16 R0
SYMATTR InstName Q2
SYMATTR Value 2N5550
SYMBOL res 1248 256 R0
SYMATTR InstName R3
SYMATTR Value 100
SYMBOL res 1152 -112 R0
SYMATTR InstName R7
SYMATTR Value 100k
SYMBOL res 1552 -112 R90
WINDOW 0 0 56 VBottom 2
WINDOW 3 32 56 VTop 2
SYMATTR InstName R8
SYMATTR Value 10k
SYMBOL schottky 1136 -240 R270
WINDOW 0 32 32 VTop 2
WINDOW 3 0 32 VBottom 2
SYMATTR InstName D5
SYMATTR Value MBRS1100
SYMATTR Description Diode
SYMATTR Type diode
SYMBOL cap 1216 -240 R0
SYMATTR InstName C2
SYMATTR Value 10µ
SYMBOL voltage 240 -352 R0
WINDOW 123 0 0 Left 0
WINDOW 39 0 0 Left 0
SYMATTR InstName V3
SYMATTR Value SINE(0 34 50k)
TEXT 48 344 Left 2 !.tran 0 30m 0 1u
